/*--------------------------------*- C++ -*----------------------------------*\
| =========                 |                                                 |
| \\      /  F ield         | OpenFOAM: The Open Source CFD Toolbox           |
|  \\    /   O peration     | Version:  2412                                  |
|   \\  /    A nd           | Website:  www.openfoam.com                      |
|    \\/     M anipulation  |                                                 |
\*---------------------------------------------------------------------------*/
FoamFile
{
    version     2.0;
    format      binary;
    arch        "LSB;label=32;scalar=64";
    class       polyBoundaryMesh;
    location    "constant/polyMesh";
    object      boundary;
}
// * * * * * * * * * * * * * * * * * * * * * * * * * * * * * * * * * * * * * //

7
(
    inlet
    {
        type            patch;
        nFaces          336;
        startFace       249107;
    }
    outlet
    {
        type            patch;
        nFaces          0;
        startFace       249443;
    }
    top
    {
        type            symmetryPlane;
        inGroups        1(symmetryPlane);
        nFaces          78;
        startFace       249443;
    }
    seabed
    {
        type            wall;
        inGroups        1(wall);
        nFaces          1176;
        startFace       249521;
    }
    frontAndBack
    {
        type            empty;
        inGroups        1(empty);
        nFaces          50390;
        startFace       250697;
    }
    cylinder
    {
        type            wall;
        inGroups        1(wall);
        nFaces          0;
        startFace       301087;
    }
    procBoundary1to0
    {
        type            processor;
        inGroups        1(processor);
        nFaces          432;
        startFace       301087;
        matchTolerance  0.0001;
        transform       unknown;
        myProcNo        1;
        neighbProcNo    0;
    }
)

// ************************************************************************* //
