FoamFile
{
    version     2.0;
    format      ascii;
    class       dictionary;
    object      faSchemes;
}
// * * * * * * * * * * * * * * * * * * * * * * * * * * * * * * * * * * * * //

ddtSchemes      {}
gradSchemes     { default Gauss linear; }
divSchemes      {}
laplacianSchemes { default Gauss linear corrected; }
interpolationSchemes {}
lnGradSchemes   { default corrected; }

// ************************************************************************* //
