FoamFile
{
    version     2.0;
    format      ascii;
    class       dictionary;
    object      faSolution;
}
// * * * * * * * * * * * * * * * * * * * * * * * * * * * * * * * * * * * * //

solvers
{
    h
    {
        solver          PCG;
        preconditioner  DIC;
        tolerance       1e-09;
        relTol          0;
    }
}

// ************************************************************************* //
