FoamFile
{
    version     2.0;
    format      ascii;
    class       volScalarField;
    location    "0_org";
    object      k;
}
// EXTRACTED from DKS-MANAGER/2DPipelineScour/0_org/k.b
// k_inlet = (ustar/Cmu^0.25)^2 = (0.04318/0.5477)^2 = 0.00622 m2/s2
// Cmu = 0.09, Cmu^0.25 = 0.5477

dimensions      [0 2 -2 0 0 0 0];

internalField   uniform 6.22e-3;

boundaryField
{
    inlet
    {
        type            fixedValue;
        value           uniform 6.22e-3;
    }
    outlet
    {
        type            zeroGradient;
    }
    surface
    {
        type            zeroGradient;
    }
    bottom
    {
        type            kqRWallFunction;
        value           uniform 6.22e-3;
    }
    lateralfront { type empty; }
    lateralback  { type empty; }
    cylinder
    {
        type            kqRWallFunction;
        value           uniform 6.22e-3;
    }
}

// ************************************************************************* //
