FoamFile
{
    version     2.0;
    format      ascii;
    class       volScalarField;
    location    "0_org";
    object      p_rgh;
}
// p_rgh = p - rho*g*h  (reduced pressure, replaces p_rbgh from baseline)

dimensions      [0 2 -2 0 0 0 0];

internalField   uniform 0;

boundaryField
{
    inlet
    {
        type            fixedFluxPressure;
        gradient        uniform 0;
        value           uniform 0;
    }
    outlet
    {
        type            fixedValue;
        value           uniform 0;
    }
    surface
    {
        type            fixedFluxPressure;
        gradient        uniform 0;
        value           uniform 0;
    }
    bottom
    {
        type            fixedFluxPressure;
        gradient        uniform 0;
        value           uniform 0;
    }
    lateralfront { type empty; }
    lateralback  { type empty; }
    cylinder
    {
        type            fixedFluxPressure;
        gradient        uniform 0;
        value           uniform 0;
    }
}

// ************************************************************************* //
