/*--------------------------------*- C++ -*----------------------------------*\
| =========                 |                                                 |
| \\      /  F ield         | OpenFOAM: The Open Source CFD Toolbox           |
|  \\    /   O peration     | Version:  2412                                  |
|   \\  /    A nd           | Website:  www.openfoam.com                      |
|    \\/     M anipulation  |                                                 |
\*---------------------------------------------------------------------------*/
FoamFile
{
    version     2.0;
    format      binary;
    arch        "LSB;label=32;scalar=64";
    class       polyBoundaryMesh;
    location    "constant/polyMesh";
    object      boundary;
}
// * * * * * * * * * * * * * * * * * * * * * * * * * * * * * * * * * * * * * //

8
(
    inlet
    {
        type            patch;
        nFaces          0;
        startFace       247308;
    }
    outlet
    {
        type            patch;
        nFaces          0;
        startFace       247308;
    }
    top
    {
        type            symmetryPlane;
        inGroups        1(symmetryPlane);
        nFaces          59;
        startFace       247308;
    }
    seabed
    {
        type            wall;
        inGroups        1(wall);
        nFaces          924;
        startFace       247367;
    }
    frontAndBack
    {
        type            empty;
        inGroups        1(empty);
        nFaces          48694;
        startFace       248291;
    }
    cylinder
    {
        type            wall;
        inGroups        1(wall);
        nFaces          792;
        startFace       296985;
    }
    procBoundary3to2
    {
        type            processor;
        inGroups        1(processor);
        nFaces          394;
        startFace       297777;
        matchTolerance  0.0001;
        transform       unknown;
        myProcNo        3;
        neighbProcNo    2;
    }
    procBoundary3to5
    {
        type            processor;
        inGroups        1(processor);
        nFaces          364;
        startFace       298171;
        matchTolerance  0.0001;
        transform       unknown;
        myProcNo        3;
        neighbProcNo    5;
    }
)

// ************************************************************************* //
