/*--------------------------------*- C++ -*----------------------------------*\
| =========                 |                                                 |
| \\      /  F ield         | OpenFOAM: The Open Source CFD Toolbox           |
|  \\    /   O peration     | Version:  2412                                  |
|   \\  /    A nd           | Website:  www.openfoam.com                      |
|    \\/     M anipulation  |                                                 |
\*---------------------------------------------------------------------------*/
FoamFile
{
    version     2.0;
    format      binary;
    arch        "LSB;label=32;scalar=64";
    class       polyBoundaryMesh;
    location    "constant/polyMesh";
    object      boundary;
}
// * * * * * * * * * * * * * * * * * * * * * * * * * * * * * * * * * * * * * //

5
(
    inlet
    {
        type            patch;
        nFaces          55;
        startFace       62947;
    }
    outlet
    {
        type            patch;
        nFaces          55;
        startFace       63002;
    }
    top
    {
        type            symmetryPlane;
        inGroups        1(symmetryPlane);
        nFaces          578;
        startFace       63057;
    }
    seabed
    {
        type            wall;
        inGroups        1(wall);
        nFaces          578;
        startFace       63635;
    }
    frontAndBack
    {
        type            empty;
        inGroups        1(empty);
        nFaces          63580;
        startFace       64213;
    }
)

// ************************************************************************* //
