FoamFile { version 2.0; format ascii; class dictionary; object faSchemes; }
ddtSchemes  { default AdamsBashforth; }
gradSchemes { default Gauss linear; }
divSchemes  { default none; div(qs) Gauss upwind; div(qav) Gauss linear; }
laplacianSchemes { default Gauss linear corrected; }
interpolationSchemes { default linear; }
snGradSchemes { default corrected; }
