FoamFile { version 2.0; format ascii; class dictionary; object faSolution; }
solvers { zb { solver PCG; preconditioner DIC; tolerance 1e-10; relTol 0; } }
