FoamFile
{
    version     2.0;
    format      ascii;
    class       dictionary;
    location    "system";
    object      fvSolution;
}
// * * * * * * * * * * * * * * * * * * * * * * * * * * * * * * * * * * * * //

solvers
{
    pcorr
    {
        solver              GAMG;
        tolerance           1e-6;
        relTol              0;
        smoother            DIC;
        nPreSweeps          0;
        nPostSweeps         2;
        cacheAgglomeration  true;
        nCellsInCoarsestLevel 10;
        agglomerator        faceAreaPair;
        mergeLevels         1;
    }

    pcorrFinal
    {
        solver              GAMG;
        tolerance           1e-6;
        relTol              0;
        smoother            DIC;
        nPreSweeps          0;
        nPostSweeps         2;
        cacheAgglomeration  true;
        nCellsInCoarsestLevel 10;
        agglomerator        faceAreaPair;
        mergeLevels         1;
    }

    p
    {
        solver              GAMG;
        tolerance           1e-6;
        relTol              1e-4;
        smoother            DIC;
        nPreSweeps          0;
        nPostSweeps         2;
        nFinestSweeps       2;
        cacheAgglomeration  true;
        nCellsInCoarsestLevel 10;
        agglomerator        faceAreaPair;
        mergeLevels         1;
    }

    pFinal
    {
        solver              GAMG;
        tolerance           1e-6;
        relTol              0;
        smoother            DIC;
        nPreSweeps          0;
        nPostSweeps         2;
        nFinestSweeps       2;
        cacheAgglomeration  true;
        nCellsInCoarsestLevel 10;
        agglomerator        faceAreaPair;
        mergeLevels         1;
    }

    U
    {
        solver          PBiCGStab;
        preconditioner  DILU;
        tolerance       1e-6;
        relTol          0.01;
    }

    UFinal
    {
        solver          PBiCGStab;
        preconditioner  DILU;
        tolerance       1e-6;
        relTol          0;
    }

    "(k|omega)"
    {
        solver          PBiCGStab;
        preconditioner  DILU;
        tolerance       1e-8;
        relTol          0.01;
    }

    kFinal
    {
        solver          PBiCGStab;
        preconditioner  DILU;
        tolerance       1e-8;
        relTol          0;
    }

    omegaFinal
    {
        solver          PBiCGStab;
        preconditioner  DILU;
        tolerance       1e-8;
        relTol          0;
    }

    // Cs MUST be bounded [0,1] -- PBiCGStab alone can produce negative
    // denormals at t=0 when Cs=0 everywhere, which drives a spurious
    // Exner displacement that collapses near-bed cells -> SIGFPE.
    Cs
    {
        solver          PBiCGStab;
        preconditioner  DILU;
        tolerance       1e-10;
        relTol          0;
        minIter         1;
        maxIter         100;
        minValue        0;
        maxValue        1;
    }

    CsFinal
    {
        solver          PBiCGStab;
        preconditioner  DILU;
        tolerance       1e-10;
        relTol          0;
        minIter         1;
        maxIter         100;
        minValue        0;
        maxValue        1;
    }

    pointDisplacement
    {
        solver          GAMG;
        tolerance       1e-8;
        relTol          0;
        smoother        GaussSeidel;
        cacheAgglomeration true;
        nCellsInCoarsestLevel 10;
        agglomerator    faceAreaPair;
        mergeLevels     1;
    }

    pointDisplacementFinal
    {
        solver          GAMG;
        tolerance       1e-8;
        relTol          0;
        smoother        GaussSeidel;
        cacheAgglomeration true;
        nCellsInCoarsestLevel 10;
        agglomerator    faceAreaPair;
        mergeLevels     1;
    }

    cellDisplacement
    {
        solver          GAMG;
        tolerance       1e-8;
        relTol          0;
        smoother        GaussSeidel;
        cacheAgglomeration true;
        nCellsInCoarsestLevel 10;
        agglomerator    faceAreaPair;
        mergeLevels     1;
    }

    cellDisplacementFinal
    {
        solver          GAMG;
        tolerance       1e-8;
        relTol          0;
        smoother        GaussSeidel;
        cacheAgglomeration true;
        nCellsInCoarsestLevel 10;
        agglomerator    faceAreaPair;
        mergeLevels     1;
    }
}

relaxationFactors
{
    equations
    {
        U               0.9;
        k               0.7;
        omega           0.7;
        Cs              0.9;
    }
}

PIMPLE
{
    nOuterCorrectors        2;
    nCorrectors             2;
    nNonOrthogonalCorrectors 1;
    pRefCell                0;
    pRefValue               0;
    morphologicalUpdate     yes;
    morphoFrequency         1;

    // Delay bed morphology until flow and Cs have spun up.
    // At t=0 Cs=0 everywhere; the first Exner step would use garbage
    // near-zero Cs values -> large spurious zb displacement -> cell collapse.
    // 4 s gives ~40 flow-through times for the inlet profile to develop.
    morphoStartTime         4.0;

    residualControl
    {
        U
        {
            tolerance   1e-4;
            relTol      0;
        }
        p
        {
            tolerance   1e-4;
            relTol      0;
        }
    }
}

faSolution
{
    solvers
    {
        zb
        {
            solver          PCG;
            preconditioner  DIC;
            tolerance       1e-10;
            relTol          0;
        }
    }
}

// ************************************************************************* //
