FoamFile
{
    version     2.0;
    format      ascii;
    class       dictionary;
    location    "system";
    object      fvSolution;
}
// * * * * * * * * * * * * * * * * * * * * * * * * * * * * * * * * * * * * //

solvers
{
    pcorr
    {
        solver              GAMG;
        tolerance           1e-6;
        relTol              0;
        smoother            DIC;
        nPreSweeps          0;
        nPostSweeps         2;
        cacheAgglomeration  true;
        nCellsInCoarsestLevel 10;
        agglomerator        faceAreaPair;
        mergeLevels         1;
    }

    pcorrFinal
    {
        solver              GAMG;
        tolerance           1e-6;
        relTol              0;
        smoother            DIC;
        nPreSweeps          0;
        nPostSweeps         2;
        cacheAgglomeration  true;
        nCellsInCoarsestLevel 10;
        agglomerator        faceAreaPair;
        mergeLevels         1;
    }

    p
    {
        solver              GAMG;
        tolerance           1e-6;
        relTol              1e-4;
        smoother            DIC;
        nPreSweeps          0;
        nPostSweeps         2;
        nFinestSweeps       2;
        cacheAgglomeration  true;
        nCellsInCoarsestLevel 10;
        agglomerator        faceAreaPair;
        mergeLevels         1;
    }

    pFinal
    {
        solver              GAMG;
        tolerance           1e-6;
        relTol              0;
        smoother            DIC;
        nPreSweeps          0;
        nPostSweeps         2;
        nFinestSweeps       2;
        cacheAgglomeration  true;
        nCellsInCoarsestLevel 10;
        agglomerator        faceAreaPair;
        mergeLevels         1;
    }

    U
    {
        solver          PBiCGStab;
        preconditioner  DILU;
        tolerance       1e-6;
        relTol          0.01;
    }

    UFinal
    {
        solver          PBiCGStab;
        preconditioner  DILU;
        tolerance       1e-6;
        relTol          0;
    }

    "(k|omega)"
    {
        solver          PBiCGStab;
        preconditioner  DILU;
        tolerance       1e-8;
        relTol          0.01;
    }

    kFinal
    {
        solver          PBiCGStab;
        preconditioner  DILU;
        tolerance       1e-8;
        relTol          0;
    }

    omegaFinal
    {
        solver          PBiCGStab;
        preconditioner  DILU;
        tolerance       1e-8;
        relTol          0;
    }

    Cs
    {
        solver          PBiCGStab;
        preconditioner  DILU;
        tolerance       1e-10;
        relTol          0;
        minIter         1;
        maxIter         100;
    }

    CsFinal
    {
        solver          PBiCGStab;
        preconditioner  DILU;
        tolerance       1e-10;
        relTol          0;
        minIter         1;
        maxIter         100;
    }

    pointDisplacement
    {
        solver          GAMG;
        tolerance       1e-8;
        relTol          0;
        smoother        GaussSeidel;
        cacheAgglomeration true;
        nCellsInCoarsestLevel 10;
        agglomerator    faceAreaPair;
        mergeLevels     1;
    }

    pointDisplacementFinal
    {
        solver          GAMG;
        tolerance       1e-8;
        relTol          0;
        smoother        GaussSeidel;
        cacheAgglomeration true;
        nCellsInCoarsestLevel 10;
        agglomerator    faceAreaPair;
        mergeLevels     1;
    }

    cellDisplacement
    {
        solver          GAMG;
        tolerance       1e-8;
        relTol          0;
        smoother        GaussSeidel;
        cacheAgglomeration true;
        nCellsInCoarsestLevel 10;
        agglomerator    faceAreaPair;
        mergeLevels     1;
    }

    cellDisplacementFinal
    {
        solver          GAMG;
        tolerance       1e-8;
        relTol          0;
        smoother        GaussSeidel;
        cacheAgglomeration true;
        nCellsInCoarsestLevel 10;
        agglomerator    faceAreaPair;
        mergeLevels     1;
    }
}

relaxationFactors
{
    equations
    {
        U               0.9;
        k               0.7;
        omega           0.7;
        Cs              0.9;
    }
}

PIMPLE
{
    nOuterCorrectors        2;
    nCorrectors             2;
    nNonOrthogonalCorrectors 1;
    pRefCell                0;
    pRefValue               0;

    // SPIN-UP MODE: morphology OFF.
    // morphoStartTime is NOT implemented in the sedExnerFoam source --
    // it is silently ignored. The only working gate is this keyword.
    // Workflow:
    //   1. Run to t~4s with morphologicalUpdate no  (flow + Cs develop)
    //   2. Stop, set morphologicalUpdate yes, restart from latest time
    morphologicalUpdate     no;
    morphoFrequency         1;

    residualControl
    {
        U
        {
            tolerance   1e-4;
            relTol      0;
        }
        p
        {
            tolerance   1e-4;
            relTol      0;
        }
    }
}

faSolution
{
    solvers
    {
        zb
        {
            solver          PCG;
            preconditioner  DIC;
            tolerance       1e-10;
            relTol          0;
        }
    }
}

// ************************************************************************* //
