FoamFile
{
    version     2.0;
    format      ascii;
    class       dictionary;
    location    "system";
    object      fvSolution;
}
// * * * * * * * * * * * * * * * * * * * * * * * * * * * * * * * * * * * * //

solvers
{
    // ── PRESSURE ─────────────────────────────────────────────────────────────────
    p
    {
        solver              GAMG;
        tolerance           1e-6;
        relTol              1e-4;
        smoother            DIC;
        nPreSweeps          0;
        nPostSweeps         2;
        nFinestSweeps       2;
        cacheAgglomeration  true;
        nCellsInCoarsestLevel 10;
        agglomerator        faceAreaPair;
        mergeLevels         1;
    }
    pFinal
    {
        solver              GAMG;
        tolerance           1e-6;
        relTol              0;
        smoother            DIC;
        nPreSweeps          0;
        nPostSweeps         2;
        nFinestSweeps       2;
        cacheAgglomeration  true;
        nCellsInCoarsestLevel 10;
        agglomerator        faceAreaPair;
        mergeLevels         1;
    }

    // ── VELOCITY ────────────────────────────────────────────────────────────────
    U
    {
        solver          PBiCGStab;
        preconditioner  DILU;
        tolerance       1e-6;
        relTol          0.01;
    }
    UFinal
    {
        solver          PBiCGStab;
        preconditioner  DILU;
        tolerance       1e-6;
        relTol          0;
    }

    // ── TURBULENCE ─────────────────────────────────────────────────────────────
    // NOTE: v2412 parser does NOT support $"quoted-regex" macro expansion.
    // The construct  "(k|omega)Final" { $"(k|omega)"; }  causes:
    //   FOAM FATAL IO ERROR: Found ERROR but expected }
    // Fix: spell out each Final entry explicitly.
    "(k|omega)"
    {
        solver          PBiCGStab;
        preconditioner  DILU;
        tolerance       1e-8;
        relTol          0.01;
    }
    kFinal
    {
        solver          PBiCGStab;
        preconditioner  DILU;
        tolerance       1e-8;
        relTol          0;
    }
    omegaFinal
    {
        solver          PBiCGStab;
        preconditioner  DILU;
        tolerance       1e-8;
        relTol          0;
    }

    // ── SUSPENDED SEDIMENT ──────────────────────────────────────────────────
    cs
    {
        solver          PBiCGStab;
        preconditioner  DILU;
        tolerance       1e-10;
        relTol          0;
        minIter         1;
    }
    csFinal
    {
        solver          PBiCGStab;
        preconditioner  DILU;
        tolerance       1e-10;
        relTol          0;
        minIter         1;
    }

    // ── MESH MOTION (displacement Laplacian) ──────────────────────────────
    cellDisplacement
    {
        solver          GAMG;
        tolerance       1e-8;
        relTol          0;
        smoother        GaussSeidel;
        cacheAgglomeration true;
        nCellsInCoarsestLevel 10;
        agglomerator    faceAreaPair;
        mergeLevels     1;
    }
    cellDisplacementFinal
    {
        solver          GAMG;
        tolerance       1e-8;
        relTol          0;
        smoother        GaussSeidel;
        cacheAgglomeration true;
        nCellsInCoarsestLevel 10;
        agglomerator    faceAreaPair;
        mergeLevels     1;
    }
}

// ── RELAXATION ────────────────────────────────────────────────────────────────────
relaxationFactors
{
    equations
    {
        U               0.9;
        k               0.7;
        omega           0.7;
        cs              0.9;
    }
}

// ── PIMPLE ────────────────────────────────────────────────────────────────────────
PIMPLE
{
    nOuterCorrectors        2;
    nCorrectors             2;
    nNonOrthogonalCorrectors 1;
    pRefCell                0;
    pRefValue               0;
    morphologicalUpdate     yes;
    morphoFrequency         1;
}

// ── FASOLUTION (Exner equation on faMesh) ──────────────────────────────────
faSolution
{
    solvers
    {
        zb
        {
            solver          PCG;
            preconditioner  DIC;
            tolerance       1e-10;
            relTol          0;
        }
    }
}

// ************************************************************************* //
