/*--------------------------------*- C++ -*----------------------------------*\
| =========                 |                                                 |
| \\      /  F ield         | OpenFOAM: The Open Source CFD Toolbox           |
|  \\    /   O peration     | Version:  2412                                  |
|   \\  /    A nd           | Website:  www.openfoam.com                      |
|    \/     M anipulation  |                                                 |
\*---------------------------------------------------------------------------*/
FoamFile
{
    version     2.0;
    format      ascii;
    class       dictionary;
    location    "system";
    object      fvSolution;
}

solvers
{
    cellDisplacement
    {
        solver          GAMG;
        tolerance       1e-5;
        relTol          0;
        smoother        GaussSeidel;
        cacheAgglomeration true;
        nCellsInCoarsestLevel 10;
        agglomerator    faceAreaPair;
        mergeLevels     1;
    }
    cellDisplacementFinal
    {
        $cellDisplacement;
        relTol          0;
    }

    p_rgh
    {
        solver          GAMG;
        tolerance       1e-6;
        relTol          0.0001;
        smoother        DIC;
        nPreSweeps      0;
        nPostSweeps     2;
        nFinestSweeps   2;
        cacheAgglomeration true;
        nCellsInCoarsestLevel 10;
        agglomerator    faceAreaPair;
        mergeLevels     1;
    }
    p_rghFinal
    {
        $p_rgh;
        tolerance       1e-6;
        relTol          0;
    }

    // p required separately - sedExnerFoam solves both p and p_rgh
    p
    {
        solver          GAMG;
        tolerance       1e-6;
        relTol          0.0001;
        smoother        DIC;
        nPreSweeps      0;
        nPostSweeps     2;
        nFinestSweeps   2;
        cacheAgglomeration true;
        nCellsInCoarsestLevel 10;
        agglomerator    faceAreaPair;
        mergeLevels     1;
    }
    pFinal
    {
        $p;
        tolerance       1e-6;
        relTol          0;
    }

    pcorr
    {
        $p_rgh;
        tolerance       1e-4;
        relTol          0;
    }
    pcorrFinal
    {
        $pcorr;
        relTol          0;
    }

    U
    {
        solver          PBiCGStab;
        preconditioner  DILU;
        tolerance       1e-6;
        relTol          0;
    }
    UFinal
    {
        $U;
        relTol          0;
    }

    k
    {
        solver          PBiCGStab;
        preconditioner  DILU;
        tolerance       1e-9;
        relTol          0;
    }
    kFinal
    {
        $k;
        relTol          0;
    }

    omega
    {
        solver          PBiCGStab;
        preconditioner  DILU;
        tolerance       1e-9;
        relTol          0;
    }
    omegaFinal
    {
        $omega;
        relTol          0;
    }

    Cs
    {
        solver          PBiCGStab;
        preconditioner  DILU;
        tolerance       1e-9;
        relTol          0;
    }
    CsFinal
    {
        $Cs;
        relTol          0;
    }

    h
    {
        solver          PBiCGStab;
        preconditioner  DILU;
        tolerance       1e-9;
        relTol          0;
    }
    hFinal
    {
        $h;
        relTol          0;
    }
}

PIMPLE
{
    nCorrectors              2;
    nNonOrthogonalCorrectors 1;
    pRefPoint                (0.9999 0.2049 0.0);
    pRefValue                0;
    correctPhi               yes;
    moveMeshOuterCorrectors  yes;
}

relaxationFactors
{
    fields
    {
        p_rgh           0.3;
        p               0.3;
    }
    equations
    {
        U               0.5;
        k               0.5;
        omega           0.5;
        Cs              0.3;
    }
}

// ************************************************************************* //
