FoamFile
{
    version     2.0;
    format      ascii;
    class       dictionary;
    location    "constant";
    object      dynamicMeshDict;
}
// * * * * * * * * * * * * * * * * * * * * * * * * * * * * * * * * * * * * //

dynamicFvMesh   dynamicMotionSolverFvMesh;

motionSolver    displacementPointSmoothing;

displacementPointSmoothingCoeffs
{
    pointSmoother       laplacian;
    nPointSmootherIter  3;
    diffusivity         inverseDistance (cylinder);
}

// ************************************************************************* //
