FoamFile
{
    version     2.0;
    format      ascii;
    class       dictionary;
    location    "constant";
    object      suspensionProperties;
}
// * * * * * * * * * * * * * * * * * * * * * * * * * * * * * * * * * * * * //

suspension         on;

fallModel
{
    type           Fredsoe;
}

hindranceModel
{
    type           none;
}

diffusivity        turbulent;

wallDiffusivity
{
    alpha          5e-6;
    beta           5;
}

CsbMax             0.3;

// ************************************************************************* //
