/*--------------------------------*- C++ -*----------------------------------*\
| =========                 |                                                 |
| \\      /  F ield         | OpenFOAM: The Open Source CFD Toolbox           |
|  \\    /   O peration     | Version:  2412                                  |
|   \\  /    A nd           | Website:  www.openfoam.com                      |
|    \/     M anipulation  |                                                 |
\*---------------------------------------------------------------------------*/
// EXTRACTED from DKS-MANAGER/2DPipelineScour/constant/transportProperties
// Fluid (phase b): rho=1000 kg/m3, nu=1e-6 m2/s
FoamFile
{
    version     2.0;
    format      ascii;
    class       dictionary;
    location    "constant";
    object      transportProperties;
}

transportModel  Newtonian;

nu              nu [0 2 -1 0 0 0 0] 1e-6;

rho             rho [1 -3 0 0 0 0 0] 1000;

// ************************************************************************* //
