/*--------------------------------*- C++ -*----------------------------------*\
| =========                 |                                                 |
| \\      /  F ield         | OpenFOAM: The Open Source CFD Toolbox           |
|  \\    /   O peration     | Version:  2412                                  |
|   \\  /    A nd           | Website:  www.openfoam.com                      |
|    \\/     M anipulation  |                                                 |
\*---------------------------------------------------------------------------*/
FoamFile
{
    version     2.0;
    format      binary;
    arch        "LSB;label=32;scalar=64";
    class       polyBoundaryMesh;
    location    "constant/polyMesh";
    object      boundary;
}
// * * * * * * * * * * * * * * * * * * * * * * * * * * * * * * * * * * * * * //

8
(
    inlet
    {
        type            patch;
        nFaces          0;
        startFace       246378;
    }
    outlet
    {
        type            patch;
        nFaces          0;
        startFace       246378;
    }
    top
    {
        type            symmetryPlane;
        inGroups        1(symmetryPlane);
        nFaces          68;
        startFace       246378;
    }
    seabed
    {
        type            wall;
        inGroups        1(wall);
        nFaces          1108;
        startFace       246446;
    }
    frontAndBack
    {
        type            empty;
        inGroups        1(empty);
        nFaces          49312;
        startFace       247554;
    }
    cylinder
    {
        type            wall;
        inGroups        1(wall);
        nFaces          0;
        startFace       296866;
    }
    procBoundary6to4
    {
        type            processor;
        inGroups        1(processor);
        nFaces          417;
        startFace       296866;
        matchTolerance  0.0001;
        transform       unknown;
        myProcNo        6;
        neighbProcNo    4;
    }
    procBoundary6to7
    {
        type            processor;
        inGroups        1(processor);
        nFaces          398;
        startFace       297283;
        matchTolerance  0.0001;
        transform       unknown;
        myProcNo        6;
        neighbProcNo    7;
    }
)

// ************************************************************************* //
