/*--------------------------------*- C++ -*----------------------------------*\
| =========                 |                                                 |
| \\      /  F ield         | OpenFOAM: The Open Source CFD Toolbox           |
|  \\    /   O peration     | Version:  2412                                  |
|   \\  /    A nd           | Website:  www.openfoam.com                      |
|    \\/     M anipulation  |                                                 |
\*---------------------------------------------------------------------------*/
FoamFile
{
    version     2.0;
    format      binary;
    arch        "LSB;label=32;scalar=64";
    class       polyBoundaryMesh;
    location    "constant/polyMesh";
    object      boundary;
}
// * * * * * * * * * * * * * * * * * * * * * * * * * * * * * * * * * * * * * //

7
(
    inlet
    {
        type            patch;
        nFaces          0;
        startFace       247958;
    }
    outlet
    {
        type            patch;
        nFaces          336;
        startFace       247958;
    }
    top
    {
        type            symmetryPlane;
        inGroups        1(symmetryPlane);
        nFaces          72;
        startFace       248294;
    }
    seabed
    {
        type            wall;
        inGroups        1(wall);
        nFaces          1220;
        startFace       248366;
    }
    frontAndBack
    {
        type            empty;
        inGroups        1(empty);
        nFaces          49804;
        startFace       249586;
    }
    cylinder
    {
        type            wall;
        inGroups        1(wall);
        nFaces          0;
        startFace       299390;
    }
    procBoundary7to6
    {
        type            processor;
        inGroups        1(processor);
        nFaces          398;
        startFace       299390;
        matchTolerance  0.0001;
        transform       unknown;
        myProcNo        7;
        neighbProcNo    6;
    }
)

// ************************************************************************* //
