/*--------------------------------*- C++ -*----------------------------------*\
| =========                 |                                                 |
| \\      /  F ield         | OpenFOAM: The Open Source CFD Toolbox           |
|  \\    /   O peration     | Version:  2412                                  |
|   \\  /    A nd           | Website:  www.openfoam.com                      |
|    \\/     M anipulation  |                                                 |
\*---------------------------------------------------------------------------*/
FoamFile
{
    version     2.0;
    format      binary;
    arch        "LSB;label=32;scalar=64";
    class       polyBoundaryMesh;
    location    "constant/polyMesh";
    object      boundary;
}
// * * * * * * * * * * * * * * * * * * * * * * * * * * * * * * * * * * * * * //

8
(
    inlet
    {
        type            patch;
        nFaces          0;
        startFace       244631;
    }
    outlet
    {
        type            patch;
        nFaces          0;
        startFace       244631;
    }
    top
    {
        type            symmetryPlane;
        inGroups        1(symmetryPlane);
        nFaces          82;
        startFace       244631;
    }
    seabed
    {
        type            wall;
        inGroups        1(wall);
        nFaces          1232;
        startFace       244713;
    }
    frontAndBack
    {
        type            empty;
        inGroups        1(empty);
        nFaces          49784;
        startFace       245945;
    }
    cylinder
    {
        type            wall;
        inGroups        1(wall);
        nFaces          0;
        startFace       295729;
    }
    procBoundary4to5
    {
        type            processor;
        inGroups        1(processor);
        nFaces          378;
        startFace       295729;
        matchTolerance  0.0001;
        transform       unknown;
        myProcNo        4;
        neighbProcNo    5;
    }
    procBoundary4to6
    {
        type            processor;
        inGroups        1(processor);
        nFaces          417;
        startFace       296107;
        matchTolerance  0.0001;
        transform       unknown;
        myProcNo        4;
        neighbProcNo    6;
    }
)

// ************************************************************************* //
